
17-08-2012 17:12:08 --- DEBUG: start: 17-08-2012 17:12:08
17-08-2012 17:12:08 --- DEBUG: finish: 17-08-2012 17:12:08
17-08-2012 17:12:08 --- DEBUG: elapsed time: ~0.01 sec., memory usage: ~0.09 Mb.
17-08-2012 18:17:12 --- DEBUG: start: 17-08-2012 18:17:12
17-08-2012 18:17:13 --- ERROR: Database_Exception [ 0 ]: [1045] Access denied for user 'root'@'localhost' (using password: YES) ~ MODPATH\database\classes\kohana\database\mysql.php [ 67 ]
#0 Z:\home\tcl\www\cron\grabber\modules\database\classes\kohana\database\mysql.php(420): Kohana_Database_MySQL->connect()
#1 Z:\home\tcl\www\cron\grabber\application\1.1.0\classes\database.php(7): Kohana_Database_MySQL->escape(2)
#2 Z:\home\tcl\www\cron\grabber\modules\database\classes\kohana\database\query\builder.php(116): Database->quote(2)
#3 Z:\home\tcl\www\cron\grabber\modules\database\classes\kohana\database\query\builder\delete.php(61): Kohana_Database_Query_Builder->_compile_conditions(Object(Database_MySQL), Array)
#4 Z:\home\tcl\www\cron\grabber\modules\database\classes\kohana\database\query.php(210): Kohana_Database_Query_Builder_Delete->compile(Object(Database_MySQL))
#5 Z:\home\tcl\www\cron\grabber\modules\jelly\classes\jelly\builder\core.php(108): Kohana_Database_Query->execute('default')
#6 Z:\home\tcl\www\cron\grabber\application\1.1.0\classes\source.php(55): Jelly_Builder_Core->execute()
#7 Z:\home\tcl\www\cron\grabber\application\1.1.0\classes\controller\home.php(34): Source->reset()
#8 [internal function]: Controller_Home->action_execute('2', 'home/execute/2', Object(Route))
#9 Z:\home\tcl\www\cron\grabber\system\classes\kohana\request\client\internal.php(132): ReflectionMethod->invokeArgs(Object(Controller_Home), Array)
#10 Z:\home\tcl\www\cron\grabber\system\classes\kohana\request.php(964): Kohana_Request_Client_Internal->execute(Object(Request))
#11 Z:\home\tcl\www\cron\grabber\index.php(110): Kohana_Request->execute()
#12 {main}
17-08-2012 18:22:05 --- DEBUG: start: 17-08-2012 18:22:05
17-08-2012 18:22:05 --- ERROR: Database_Exception [ 0 ]: [1049] Unknown database 'boldyrek_db1' ~ MODPATH\database\classes\kohana\database\mysql.php [ 96 ]
#0 Z:\home\tcl\www\cron\grabber\modules\database\classes\kohana\database\mysql.php(76): Kohana_Database_MySQL->_select_db('boldyrek_db1')
#1 Z:\home\tcl\www\cron\grabber\modules\database\classes\kohana\database\mysql.php(420): Kohana_Database_MySQL->connect()
#2 Z:\home\tcl\www\cron\grabber\application\1.1.0\classes\database.php(7): Kohana_Database_MySQL->escape(2)
#3 Z:\home\tcl\www\cron\grabber\modules\database\classes\kohana\database\query\builder.php(116): Database->quote(2)
#4 Z:\home\tcl\www\cron\grabber\modules\database\classes\kohana\database\query\builder\delete.php(61): Kohana_Database_Query_Builder->_compile_conditions(Object(Database_MySQL), Array)
#5 Z:\home\tcl\www\cron\grabber\modules\database\classes\kohana\database\query.php(210): Kohana_Database_Query_Builder_Delete->compile(Object(Database_MySQL))
#6 Z:\home\tcl\www\cron\grabber\modules\jelly\classes\jelly\builder\core.php(108): Kohana_Database_Query->execute('default')
#7 Z:\home\tcl\www\cron\grabber\application\1.1.0\classes\source.php(55): Jelly_Builder_Core->execute()
#8 Z:\home\tcl\www\cron\grabber\application\1.1.0\classes\controller\home.php(34): Source->reset()
#9 [internal function]: Controller_Home->action_execute('2', 'home/execute/2', Object(Route))
#10 Z:\home\tcl\www\cron\grabber\system\classes\kohana\request\client\internal.php(132): ReflectionMethod->invokeArgs(Object(Controller_Home), Array)
#11 Z:\home\tcl\www\cron\grabber\system\classes\kohana\request.php(964): Kohana_Request_Client_Internal->execute(Object(Request))
#12 Z:\home\tcl\www\cron\grabber\index.php(110): Kohana_Request->execute()
#13 {main}
17-08-2012 18:23:03 --- DEBUG: start: 17-08-2012 18:23:03
17-08-2012 18:23:03 --- DEBUG: ----------Source_Adesa (apache2handler)
17-08-2012 18:23:09 --- DEBUG: Authorized request
17-08-2012 18:23:10 --- DEBUG: Lexus RX 330 - found: 0, pass primary filters: 0, did not pass the filter by colors: 0, did not pass the filter by options: 0, added: 0, new vincodes: 0
17-08-2012 18:23:10 --- DEBUG: Lexus RX 400H - found: 0, pass primary filters: 0, did not pass the filter by colors: 0, did not pass the filter by options: 0, added: 0, new vincodes: 0
17-08-2012 18:23:11 --- DEBUG: Lexus GX 470 - found: 0, pass primary filters: 0, did not pass the filter by colors: 0, did not pass the filter by options: 0, added: 0, new vincodes: 0
17-08-2012 18:23:11 --- DEBUG: Lexus GX 470 - found: 0, pass primary filters: 0, did not pass the filter by colors: 0, did not pass the filter by options: 0, added: 0, new vincodes: 0
17-08-2012 18:23:12 --- DEBUG: Lexus LX 470 - found: 0, pass primary filters: 0, did not pass the filter by colors: 0, did not pass the filter by options: 0, added: 0, new vincodes: 0
17-08-2012 18:23:12 --- DEBUG: Lexus LX 470 - found: 0, pass primary filters: 0, did not pass the filter by colors: 0, did not pass the filter by options: 0, added: 0, new vincodes: 0
17-08-2012 18:23:13 --- DEBUG: Toyota Land Cruiser - found: 0, pass primary filters: 0, did not pass the filter by colors: 0, did not pass the filter by options: 0, added: 0, new vincodes: 0
17-08-2012 18:23:13 --- DEBUG: Honda CR-V - found: 0, pass primary filters: 0, did not pass the filter by colors: 0, did not pass the filter by options: 0, added: 0, new vincodes: 0
17-08-2012 18:23:14 --- DEBUG: Toyota 4RUNNER 4WD V6 - found: 0, pass primary filters: 0, did not pass the filter by colors: 0, did not pass the filter by options: 0, added: 0, new vincodes: 0
17-08-2012 18:23:15 --- DEBUG: Toyota Highlander 4WD - found: 0, pass primary filters: 0, did not pass the filter by colors: 0, did not pass the filter by options: 0, added: 0, new vincodes: 0
17-08-2012 18:23:15 --- DEBUG: Toyota Highlander - found: 0, pass primary filters: 0, did not pass the filter by colors: 0, did not pass the filter by options: 0, added: 0, new vincodes: 0
17-08-2012 18:23:16 --- DEBUG: Lexus RX 350 - found: 0, pass primary filters: 0, did not pass the filter by colors: 0, did not pass the filter by options: 0, added: 0, new vincodes: 0
17-08-2012 18:23:16 --- DEBUG: Toyota 4RUNNER Limited V6 - found: 0, pass primary filters: 0, did not pass the filter by colors: 0, did not pass the filter by options: 0, added: 0, new vincodes: 0
17-08-2012 18:23:16 --- DEBUG: finish: 17-08-2012 18:23:16
17-08-2012 18:23:16 --- DEBUG: elapsed time: ~13.25 sec., memory usage: ~1.86 Mb.
17-08-2012 18:44:45 --- DEBUG: start: 17-08-2012 18:44:45
17-08-2012 18:44:45 --- DEBUG: ----------Source_Adesa (apache2handler)
17-08-2012 18:44:51 --- DEBUG: Authorized request
17-08-2012 18:44:52 --- DEBUG: Lexus RX 330 - found: 0, pass primary filters: 0, did not pass the filter by colors: 0, did not pass the filter by options: 0, added: 0, new vincodes: 0
17-08-2012 18:44:52 --- DEBUG: Lexus RX 400H - found: 0, pass primary filters: 0, did not pass the filter by colors: 0, did not pass the filter by options: 0, added: 0, new vincodes: 0
17-08-2012 18:44:53 --- DEBUG: Lexus GX 470 - found: 0, pass primary filters: 0, did not pass the filter by colors: 0, did not pass the filter by options: 0, added: 0, new vincodes: 0
17-08-2012 18:44:53 --- DEBUG: Lexus GX 470 - found: 0, pass primary filters: 0, did not pass the filter by colors: 0, did not pass the filter by options: 0, added: 0, new vincodes: 0
17-08-2012 18:44:54 --- DEBUG: Lexus LX 470 - found: 0, pass primary filters: 0, did not pass the filter by colors: 0, did not pass the filter by options: 0, added: 0, new vincodes: 0
17-08-2012 18:44:54 --- DEBUG: Lexus LX 470 - found: 0, pass primary filters: 0, did not pass the filter by colors: 0, did not pass the filter by options: 0, added: 0, new vincodes: 0
17-08-2012 18:44:55 --- DEBUG: Toyota Land Cruiser - found: 0, pass primary filters: 0, did not pass the filter by colors: 0, did not pass the filter by options: 0, added: 0, new vincodes: 0
17-08-2012 18:44:55 --- DEBUG: Honda CR-V - found: 0, pass primary filters: 0, did not pass the filter by colors: 0, did not pass the filter by options: 0, added: 0, new vincodes: 0
17-08-2012 18:44:56 --- DEBUG: Toyota 4RUNNER 4WD V6 - found: 0, pass primary filters: 0, did not pass the filter by colors: 0, did not pass the filter by options: 0, added: 0, new vincodes: 0
17-08-2012 18:44:56 --- DEBUG: Toyota Highlander 4WD - found: 0, pass primary filters: 0, did not pass the filter by colors: 0, did not pass the filter by options: 0, added: 0, new vincodes: 0
17-08-2012 18:44:57 --- DEBUG: Toyota Highlander - found: 0, pass primary filters: 0, did not pass the filter by colors: 0, did not pass the filter by options: 0, added: 0, new vincodes: 0
17-08-2012 18:44:57 --- DEBUG: Lexus RX 350 - found: 0, pass primary filters: 0, did not pass the filter by colors: 0, did not pass the filter by options: 0, added: 0, new vincodes: 0
17-08-2012 18:44:58 --- DEBUG: Toyota 4RUNNER Limited V6 - found: 0, pass primary filters: 0, did not pass the filter by colors: 0, did not pass the filter by options: 0, added: 0, new vincodes: 0
17-08-2012 18:44:58 --- DEBUG: finish: 17-08-2012 18:44:58
17-08-2012 18:44:58 --- DEBUG: elapsed time: ~13.03 sec., memory usage: ~1.86 Mb.
17-08-2012 18:46:20 --- DEBUG: start: 17-08-2012 18:46:20
17-08-2012 18:46:20 --- DEBUG: ----------Source_Adesa (apache2handler)
17-08-2012 18:46:28 --- DEBUG: start: 17-08-2012 18:46:28
17-08-2012 18:46:28 --- DEBUG: ----------Source_Adesa (apache2handler)
17-08-2012 18:46:36 --- DEBUG: Authorized request
17-08-2012 18:46:30 --- DEBUG: start: 17-08-2012 18:46:30
17-08-2012 18:46:30 --- DEBUG: ----------Source_Adesa (apache2handler)
17-08-2012 18:46:38 --- DEBUG: Authorized request
17-08-2012 18:46:47 --- DEBUG: start: 17-08-2012 18:46:47
17-08-2012 18:46:47 --- DEBUG: ----------Source_Adesa (apache2handler)
17-08-2012 18:46:53 --- DEBUG: Authorized request
17-08-2012 18:49:09 --- DEBUG: start: 17-08-2012 18:49:09
17-08-2012 18:49:09 --- DEBUG: ----------Source_Adesa (apache2handler)
17-08-2012 18:49:14 --- DEBUG: Authorized request
17-08-2012 18:50:23 --- DEBUG: start: 17-08-2012 18:50:23
17-08-2012 18:50:24 --- DEBUG: ----------Source_Adesa (apache2handler)
17-08-2012 18:51:11 --- DEBUG: start: 17-08-2012 18:51:11
17-08-2012 18:51:11 --- DEBUG: ----------Source_Adesa (apache2handler)
17-08-2012 18:51:17 --- DEBUG: Authorized request
17-08-2012 18:52:17 --- DEBUG: start: 17-08-2012 18:52:17
17-08-2012 18:52:18 --- DEBUG: ----------Source_Adesa (apache2handler)
17-08-2012 18:52:22 --- DEBUG: Authorized request
17-08-2012 18:57:18 --- DEBUG: start: 17-08-2012 18:57:18
17-08-2012 18:57:18 --- DEBUG: ----------Source_Adesa (apache2handler)
17-08-2012 18:57:23 --- DEBUG: Authorized request
17-08-2012 18:57:24 --- DEBUG: Lexus RX 330 - found: 0, pass primary filters: 0, did not pass the filter by colors: 0, did not pass the filter by options: 0, added: 0, new vincodes: 0
17-08-2012 18:57:25 --- DEBUG: Lexus RX 400H - found: 0, pass primary filters: 0, did not pass the filter by colors: 0, did not pass the filter by options: 0, added: 0, new vincodes: 0
17-08-2012 18:57:25 --- DEBUG: Lexus GX 470 - found: 0, pass primary filters: 0, did not pass the filter by colors: 0, did not pass the filter by options: 0, added: 0, new vincodes: 0
17-08-2012 18:57:26 --- DEBUG: Lexus GX 470 - found: 0, pass primary filters: 0, did not pass the filter by colors: 0, did not pass the filter by options: 0, added: 0, new vincodes: 0
17-08-2012 18:57:26 --- DEBUG: Lexus LX 470 - found: 0, pass primary filters: 0, did not pass the filter by colors: 0, did not pass the filter by options: 0, added: 0, new vincodes: 0
17-08-2012 18:57:27 --- DEBUG: Lexus LX 470 - found: 0, pass primary filters: 0, did not pass the filter by colors: 0, did not pass the filter by options: 0, added: 0, new vincodes: 0
17-08-2012 18:57:27 --- DEBUG: Toyota Land Cruiser - found: 0, pass primary filters: 0, did not pass the filter by colors: 0, did not pass the filter by options: 0, added: 0, new vincodes: 0
17-08-2012 18:57:28 --- DEBUG: Honda CR-V - found: 0, pass primary filters: 0, did not pass the filter by colors: 0, did not pass the filter by options: 0, added: 0, new vincodes: 0
17-08-2012 18:57:28 --- DEBUG: Toyota 4RUNNER 4WD V6 - found: 0, pass primary filters: 0, did not pass the filter by colors: 0, did not pass the filter by options: 0, added: 0, new vincodes: 0
17-08-2012 18:57:29 --- DEBUG: Toyota Highlander 4WD - found: 0, pass primary filters: 0, did not pass the filter by colors: 0, did not pass the filter by options: 0, added: 0, new vincodes: 0
17-08-2012 18:57:29 --- DEBUG: Toyota Highlander - found: 0, pass primary filters: 0, did not pass the filter by colors: 0, did not pass the filter by options: 0, added: 0, new vincodes: 0
17-08-2012 18:57:30 --- DEBUG: Lexus RX 350 - found: 0, pass primary filters: 0, did not pass the filter by colors: 0, did not pass the filter by options: 0, added: 0, new vincodes: 0
17-08-2012 18:57:30 --- DEBUG: Toyota 4RUNNER Limited V6 - found: 0, pass primary filters: 0, did not pass the filter by colors: 0, did not pass the filter by options: 0, added: 0, new vincodes: 0
17-08-2012 18:57:30 --- DEBUG: finish: 17-08-2012 18:57:30
17-08-2012 18:57:30 --- DEBUG: elapsed time: ~12.08 sec., memory usage: ~1.86 Mb.