
27-07-2012 03:47:52 --- INFO: start: 27-07-2012 03:47:52
27-07-2012 03:47:52 --- INFO: ----------Source_Megaavto (apache2handler)
27-07-2012 03:54:48 --- ERROR: Database_Exception [ 0 ]: [1062] Duplicate entry '2T2HA31U86C091564-86680' for key 'vincode_option' ( INSERT INTO `ccl_grabber_options` (`vincode`, `option`, `exists`) VALUES ('2T2HA31U86C091564', '86680', '0') ) ~ MODPATH/database/classes/kohana/database/mysql.php [ 181 ]
#0 /home/clients/boldyrek_ftp0/domains/tcl.makmalauto.com/html/cron/grabber/modules/database/classes/kohana/database/query.php(225): Kohana_Database_MySQL->query(2, 'INSERT INTO `cc...', false, Array)
#1 /home/clients/boldyrek_ftp0/domains/tcl.makmalauto.com/html/cron/grabber/modules/jelly/classes/jelly/builder/core.php(108): Kohana_Database_Query->execute('production')
#2 /home/clients/boldyrek_ftp0/domains/tcl.makmalauto.com/html/cron/grabber/modules/jelly/classes/jelly/model/core.php(474): Jelly_Builder_Core->execute()
#3 /home/clients/boldyrek_ftp0/domains/tcl.makmalauto.com/html/cron/grabber/application/1.1.0/classes/source.php(328): Jelly_Model_Core->save()
#4 /home/clients/boldyrek_ftp0/domains/tcl.makmalauto.com/html/cron/grabber/application/1.1.0/classes/source/megaavto.php(129): Source->_cache_options(2, 9)
#5 /home/clients/boldyrek_ftp0/domains/tcl.makmalauto.com/html/cron/grabber/application/1.1.0/classes/source.php(48): Source_Megaavto->execute()
#6 /home/clients/boldyrek_ftp0/domains/tcl.makmalauto.com/html/cron/grabber/application/1.1.0/classes/controller/home.php(35): Source->run()
#7 [internal function]: Controller_Home->action_execute('9', 'home/execute/9', Object(Route))
#8 /home/clients/boldyrek_ftp0/domains/tcl.makmalauto.com/html/cron/grabber/system/classes/kohana/request/client/internal.php(132): ReflectionMethod->invokeArgs(Object(Controller_Home), Array)
#9 /home/clients/boldyrek_ftp0/domains/tcl.makmalauto.com/html/cron/grabber/system/classes/kohana/request.php(964): Kohana_Request_Client_Internal->execute(Object(Request))
#10 /home/clients/boldyrek_ftp0/domains/tcl.makmalauto.com/html/cron/grabber/index.php(110): Kohana_Request->execute()
#11 {main}
27-07-2012 05:14:43 --- INFO: start: 27-07-2012 05:14:43
27-07-2012 05:14:43 --- INFO: ----------Source_Megaavto (apache2handler)
27-07-2012 05:17:59 --- ERROR: Database_Exception [ 0 ]: [1062] Duplicate entry '2T2HA31U86C091564-86680' for key 'vincode_option' ( INSERT INTO `ccl_grabber_options` (`vincode`, `option`, `exists`) VALUES ('2T2HA31U86C091564', '86680', '0') ) ~ MODPATH/database/classes/kohana/database/mysql.php [ 181 ]
#0 /home/clients/boldyrek_ftp0/domains/tcl.makmalauto.com/html/cron/grabber/modules/database/classes/kohana/database/query.php(225): Kohana_Database_MySQL->query(2, 'INSERT INTO `cc...', false, Array)
#1 /home/clients/boldyrek_ftp0/domains/tcl.makmalauto.com/html/cron/grabber/modules/jelly/classes/jelly/builder/core.php(108): Kohana_Database_Query->execute('production')
#2 /home/clients/boldyrek_ftp0/domains/tcl.makmalauto.com/html/cron/grabber/modules/jelly/classes/jelly/model/core.php(474): Jelly_Builder_Core->execute()
#3 /home/clients/boldyrek_ftp0/domains/tcl.makmalauto.com/html/cron/grabber/application/1.1.0/classes/source.php(328): Jelly_Model_Core->save()
#4 /home/clients/boldyrek_ftp0/domains/tcl.makmalauto.com/html/cron/grabber/application/1.1.0/classes/source/megaavto.php(129): Source->_cache_options(2, 9)
#5 /home/clients/boldyrek_ftp0/domains/tcl.makmalauto.com/html/cron/grabber/application/1.1.0/classes/source.php(48): Source_Megaavto->execute()
#6 /home/clients/boldyrek_ftp0/domains/tcl.makmalauto.com/html/cron/grabber/application/1.1.0/classes/controller/home.php(35): Source->run()
#7 [internal function]: Controller_Home->action_execute('9', 'home/execute/9', Object(Route))
#8 /home/clients/boldyrek_ftp0/domains/tcl.makmalauto.com/html/cron/grabber/system/classes/kohana/request/client/internal.php(132): ReflectionMethod->invokeArgs(Object(Controller_Home), Array)
#9 /home/clients/boldyrek_ftp0/domains/tcl.makmalauto.com/html/cron/grabber/system/classes/kohana/request.php(964): Kohana_Request_Client_Internal->execute(Object(Request))
#10 /home/clients/boldyrek_ftp0/domains/tcl.makmalauto.com/html/cron/grabber/index.php(110): Kohana_Request->execute()
#11 {main}
27-07-2012 04:30:11 --- INFO: start: 27-07-2012 04:30:11
27-07-2012 04:30:11 --- INFO: ----------Source_Gsmotors (apache2handler)
27-07-2012 04:31:23 --- INFO: Lexus RX 330 - found: 0, pass primary filters: 0, did not pass the filter by colors: 0, did not pass the filter by options: 0, added: 0, new vincodes: 0
27-07-2012 04:34:50 --- INFO: Lexus RX 400H - found: 44, pass primary filters: 12, did not pass the filter by colors: 11, did not pass the filter by options: 0, added: 1, new vincodes: 1
27-07-2012 04:41:00 --- INFO: Lexus GX 470 - found: 68, pass primary filters: 53, did not pass the filter by colors: 38, did not pass the filter by options: 7, added: 8, new vincodes: 0
27-07-2012 04:52:10 --- INFO: Lexus GX 470 - found: 152, pass primary filters: 87, did not pass the filter by colors: 59, did not pass the filter by options: 10, added: 18, new vincodes: 0
27-07-2012 04:55:59 --- INFO: Lexus LX 470 - found: 53, pass primary filters: 34, did not pass the filter by colors: 23, did not pass the filter by options: , added: 11, new vincodes: 1
27-07-2012 04:57:06 --- INFO: Lexus LX 470 - found: 23, pass primary filters: 2, did not pass the filter by colors: 1, did not pass the filter by options: , added: 1, new vincodes: 0
27-07-2012 04:58:14 --- INFO: Toyota Land Cruiser - found: 13, pass primary filters: 12, did not pass the filter by colors: 11, did not pass the filter by options: 0, added: 1, new vincodes: 0
27-07-2012 05:07:02 --- INFO: Toyota 4RUNNER 4WD V6 - found: 128, pass primary filters: 30, did not pass the filter by colors: 15, did not pass the filter by options: , added: 15, new vincodes: 1
27-07-2012 05:17:37 --- INFO: Toyota Highlander 4WD - found: 173, pass primary filters: 4, did not pass the filter by colors: 4, did not pass the filter by options: 0, added: 0, new vincodes: 0
27-07-2012 05:25:12 --- INFO: Toyota Highlander - found: 129, pass primary filters: 0, did not pass the filter by colors: 0, did not pass the filter by options: , added: 0, new vincodes: 0
27-07-2012 05:32:08 --- INFO: Lexus RX 350 - found: 103, pass primary filters: 23, did not pass the filter by colors: 22, did not pass the filter by options: 0, added: 1, new vincodes: 0
27-07-2012 05:45:22 --- INFO: Toyota 4RUNNER Limited V6 - found: 244, pass primary filters: 16, did not pass the filter by colors: 5, did not pass the filter by options: , added: 11, new vincodes: 2
27-07-2012 05:45:22 --- INFO: finish: 27-07-2012 05:45:22
27-07-2012 05:45:22 --- INFO: elapsed time: ~4510.31 sec., memory usage: ~4.51 Mb.
27-07-2012 06:10:01 --- INFO: start: 27-07-2012 06:10:01
27-07-2012 06:10:01 --- INFO: ----------Source_Adesa (cli)
27-07-2012 06:10:03 --- INFO: Authorized request
27-07-2012 06:10:24 --- INFO: Lexus RX 330 - found: 15, pass primary filters: 10, did not pass the filter by colors: 7, did not pass the filter by options: 2, added: 1, new vincodes: 0
27-07-2012 06:10:24 --- INFO: Lexus RX 400H - found: 2, pass primary filters: 0, did not pass the filter by colors: 0, did not pass the filter by options: 0, added: 0, new vincodes: 0
27-07-2012 06:10:29 --- INFO: Lexus GX 470 - found: 5, pass primary filters: 3, did not pass the filter by colors: 2, did not pass the filter by options: 0, added: 1, new vincodes: 0
27-07-2012 06:10:36 --- INFO: Lexus GX 470 - found: 7, pass primary filters: 3, did not pass the filter by colors: 3, did not pass the filter by options: 0, added: 0, new vincodes: 0
27-07-2012 06:10:56 --- INFO: Lexus LX 470 - found: 5, pass primary filters: 5, did not pass the filter by colors: 4, did not pass the filter by options: , added: 1, new vincodes: 0
27-07-2012 06:10:56 --- INFO: Lexus LX 470 - found: 0, pass primary filters: 0, did not pass the filter by colors: 0, did not pass the filter by options: 0, added: 0, new vincodes: 0
27-07-2012 06:11:13 --- INFO: Toyota Land Cruiser - found: 3, pass primary filters: 3, did not pass the filter by colors: 3, did not pass the filter by options: 0, added: 0, new vincodes: 1
27-07-2012 06:11:22 --- INFO: Toyota 4RUNNER 4WD V6 - found: 26, pass primary filters: 4, did not pass the filter by colors: 3, did not pass the filter by options: , added: 1, new vincodes: 0
27-07-2012 06:11:29 --- INFO: Toyota Highlander 4WD - found: 32, pass primary filters: 1, did not pass the filter by colors: 1, did not pass the filter by options: 0, added: 0, new vincodes: 0
27-07-2012 06:11:29 --- INFO: Toyota Highlander - found: 5, pass primary filters: 0, did not pass the filter by colors: 0, did not pass the filter by options: 0, added: 0, new vincodes: 0
27-07-2012 06:11:36 --- INFO: Lexus RX 350 - found: 6, pass primary filters: 2, did not pass the filter by colors: 2, did not pass the filter by options: 0, added: 0, new vincodes: 0
27-07-2012 06:11:44 --- INFO: Toyota 4RUNNER Limited V6 - found: 49, pass primary filters: 4, did not pass the filter by colors: 1, did not pass the filter by options: , added: 3, new vincodes: 0
27-07-2012 06:11:44 --- INFO: finish: 27-07-2012 06:11:44
27-07-2012 06:11:44 --- INFO: elapsed time: ~103.03 sec., memory usage: ~2.42 Mb.
27-07-2012 06:40:01 --- INFO: start: 27-07-2012 06:40:01
27-07-2012 06:40:01 --- INFO: ----------Source_Megaavto (cli)
27-07-2012 06:43:19 --- ERROR: Database_Exception [ 0 ]: [1062] Duplicate entry 'JTJHA31U140034373-86680' for key 'vincode_option' ( INSERT INTO `ccl_grabber_options` (`vincode`, `option`, `exists`) VALUES ('JTJHA31U140034373', '86680', '0') ) ~ MODPATH/database/classes/kohana/database/mysql.php [ 181 ]
#0 /home/clients/boldyrek_ftp0/domains/tcl.makmalauto.com/html/cron/grabber/modules/database/classes/kohana/database/query.php(225): Kohana_Database_MySQL->query(2, 'INSERT INTO `cc...', false, Array)
#1 /home/clients/boldyrek_ftp0/domains/tcl.makmalauto.com/html/cron/grabber/modules/jelly/classes/jelly/builder/core.php(108): Kohana_Database_Query->execute('production')
#2 /home/clients/boldyrek_ftp0/domains/tcl.makmalauto.com/html/cron/grabber/modules/jelly/classes/jelly/model/core.php(474): Jelly_Builder_Core->execute()
#3 /home/clients/boldyrek_ftp0/domains/tcl.makmalauto.com/html/cron/grabber/application/1.1.0/classes/source.php(328): Jelly_Model_Core->save()
#4 /home/clients/boldyrek_ftp0/domains/tcl.makmalauto.com/html/cron/grabber/application/1.1.0/classes/source/megaavto.php(129): Source->_cache_options(2, 9)
#5 /home/clients/boldyrek_ftp0/domains/tcl.makmalauto.com/html/cron/grabber/application/1.1.0/classes/source.php(48): Source_Megaavto->execute()
#6 /home/clients/boldyrek_ftp0/domains/tcl.makmalauto.com/html/cron/grabber/application/1.1.0/classes/controller/home.php(35): Source->run()
#7 [internal function]: Controller_Home->action_execute('9', 'home/execute/9', Object(Route))
#8 /home/clients/boldyrek_ftp0/domains/tcl.makmalauto.com/html/cron/grabber/system/classes/kohana/request/client/internal.php(132): ReflectionMethod->invokeArgs(Object(Controller_Home), Array)
#9 /home/clients/boldyrek_ftp0/domains/tcl.makmalauto.com/html/cron/grabber/system/classes/kohana/request.php(964): Kohana_Request_Client_Internal->execute(Object(Request))
#10 /home/clients/boldyrek_ftp0/domains/tcl.makmalauto.com/html/cron/grabber/index.php(110): Kohana_Request->execute()
#11 {main}
27-07-2012 08:10:01 --- INFO: start: 27-07-2012 08:10:01
27-07-2012 08:10:01 --- INFO: ----------Source_Adesa (cli)
27-07-2012 08:10:02 --- INFO: Authorized request
27-07-2012 08:10:19 --- ERROR: Database_Exception [ 0 ]: [1062] Duplicate entry 'JTJHA31U040019380-86680' for key 'vincode_option' ( INSERT INTO `ccl_grabber_options` (`vincode`, `option`, `exists`) VALUES ('JTJHA31U040019380', '86680', '0') ) ~ MODPATH/database/classes/kohana/database/mysql.php [ 181 ]
#0 /home/clients/boldyrek_ftp0/domains/tcl.makmalauto.com/html/cron/grabber/modules/database/classes/kohana/database/query.php(225): Kohana_Database_MySQL->query(2, 'INSERT INTO `cc...', false, Array)
#1 /home/clients/boldyrek_ftp0/domains/tcl.makmalauto.com/html/cron/grabber/modules/jelly/classes/jelly/builder/core.php(108): Kohana_Database_Query->execute('production')
#2 /home/clients/boldyrek_ftp0/domains/tcl.makmalauto.com/html/cron/grabber/modules/jelly/classes/jelly/model/core.php(474): Jelly_Builder_Core->execute()
#3 /home/clients/boldyrek_ftp0/domains/tcl.makmalauto.com/html/cron/grabber/application/1.1.0/classes/source.php(328): Jelly_Model_Core->save()
#4 /home/clients/boldyrek_ftp0/domains/tcl.makmalauto.com/html/cron/grabber/application/1.1.0/classes/source/adesa.php(115): Source->_cache_options(2, 2)
#5 /home/clients/boldyrek_ftp0/domains/tcl.makmalauto.com/html/cron/grabber/application/1.1.0/classes/source.php(48): Source_Adesa->execute()
#6 /home/clients/boldyrek_ftp0/domains/tcl.makmalauto.com/html/cron/grabber/application/1.1.0/classes/controller/home.php(35): Source->run()
#7 [internal function]: Controller_Home->action_execute('2', 'home/execute/2', Object(Route))
#8 /home/clients/boldyrek_ftp0/domains/tcl.makmalauto.com/html/cron/grabber/system/classes/kohana/request/client/internal.php(132): ReflectionMethod->invokeArgs(Object(Controller_Home), Array)
#9 /home/clients/boldyrek_ftp0/domains/tcl.makmalauto.com/html/cron/grabber/system/classes/kohana/request.php(964): Kohana_Request_Client_Internal->execute(Object(Request))
#10 /home/clients/boldyrek_ftp0/domains/tcl.makmalauto.com/html/cron/grabber/index.php(110): Kohana_Request->execute()
#11 {main}
27-07-2012 08:40:01 --- INFO: start: 27-07-2012 08:40:01
27-07-2012 08:40:01 --- INFO: ----------Source_Megaavto (cli)
27-07-2012 08:43:22 --- ERROR: Database_Exception [ 0 ]: [1062] Duplicate entry '2T2HA31U16C087971-86680' for key 'vincode_option' ( INSERT INTO `ccl_grabber_options` (`vincode`, `option`, `exists`) VALUES ('2T2HA31U16C087971', '86680', '0') ) ~ MODPATH/database/classes/kohana/database/mysql.php [ 181 ]
#0 /home/clients/boldyrek_ftp0/domains/tcl.makmalauto.com/html/cron/grabber/modules/database/classes/kohana/database/query.php(225): Kohana_Database_MySQL->query(2, 'INSERT INTO `cc...', false, Array)
#1 /home/clients/boldyrek_ftp0/domains/tcl.makmalauto.com/html/cron/grabber/modules/jelly/classes/jelly/builder/core.php(108): Kohana_Database_Query->execute('production')
#2 /home/clients/boldyrek_ftp0/domains/tcl.makmalauto.com/html/cron/grabber/modules/jelly/classes/jelly/model/core.php(474): Jelly_Builder_Core->execute()
#3 /home/clients/boldyrek_ftp0/domains/tcl.makmalauto.com/html/cron/grabber/application/1.1.0/classes/source.php(328): Jelly_Model_Core->save()
#4 /home/clients/boldyrek_ftp0/domains/tcl.makmalauto.com/html/cron/grabber/application/1.1.0/classes/source/megaavto.php(129): Source->_cache_options(2, 9)
#5 /home/clients/boldyrek_ftp0/domains/tcl.makmalauto.com/html/cron/grabber/application/1.1.0/classes/source.php(48): Source_Megaavto->execute()
#6 /home/clients/boldyrek_ftp0/domains/tcl.makmalauto.com/html/cron/grabber/application/1.1.0/classes/controller/home.php(35): Source->run()
#7 [internal function]: Controller_Home->action_execute('9', 'home/execute/9', Object(Route))
#8 /home/clients/boldyrek_ftp0/domains/tcl.makmalauto.com/html/cron/grabber/system/classes/kohana/request/client/internal.php(132): ReflectionMethod->invokeArgs(Object(Controller_Home), Array)
#9 /home/clients/boldyrek_ftp0/domains/tcl.makmalauto.com/html/cron/grabber/system/classes/kohana/request.php(964): Kohana_Request_Client_Internal->execute(Object(Request))
#10 /home/clients/boldyrek_ftp0/domains/tcl.makmalauto.com/html/cron/grabber/index.php(110): Kohana_Request->execute()
#11 {main}
27-07-2012 09:10:01 --- INFO: start: 27-07-2012 09:10:01
27-07-2012 09:10:01 --- INFO: ----------Source_Adesa (cli)
27-07-2012 09:10:01 --- INFO: Authorized request
27-07-2012 09:10:19 --- ERROR: Database_Exception [ 0 ]: [1062] Duplicate entry '2T2HA31U94C027529-86680' for key 'vincode_option' ( INSERT INTO `ccl_grabber_options` (`vincode`, `option`, `exists`) VALUES ('2T2HA31U94C027529', '86680', '0') ) ~ MODPATH/database/classes/kohana/database/mysql.php [ 181 ]
#0 /home/clients/boldyrek_ftp0/domains/tcl.makmalauto.com/html/cron/grabber/modules/database/classes/kohana/database/query.php(225): Kohana_Database_MySQL->query(2, 'INSERT INTO `cc...', false, Array)
#1 /home/clients/boldyrek_ftp0/domains/tcl.makmalauto.com/html/cron/grabber/modules/jelly/classes/jelly/builder/core.php(108): Kohana_Database_Query->execute('production')
#2 /home/clients/boldyrek_ftp0/domains/tcl.makmalauto.com/html/cron/grabber/modules/jelly/classes/jelly/model/core.php(474): Jelly_Builder_Core->execute()
#3 /home/clients/boldyrek_ftp0/domains/tcl.makmalauto.com/html/cron/grabber/application/1.1.0/classes/source.php(328): Jelly_Model_Core->save()
#4 /home/clients/boldyrek_ftp0/domains/tcl.makmalauto.com/html/cron/grabber/application/1.1.0/classes/source/adesa.php(115): Source->_cache_options(2, 2)
#5 /home/clients/boldyrek_ftp0/domains/tcl.makmalauto.com/html/cron/grabber/application/1.1.0/classes/source.php(48): Source_Adesa->execute()
#6 /home/clients/boldyrek_ftp0/domains/tcl.makmalauto.com/html/cron/grabber/application/1.1.0/classes/controller/home.php(35): Source->run()
#7 [internal function]: Controller_Home->action_execute('2', 'home/execute/2', Object(Route))
#8 /home/clients/boldyrek_ftp0/domains/tcl.makmalauto.com/html/cron/grabber/system/classes/kohana/request/client/internal.php(132): ReflectionMethod->invokeArgs(Object(Controller_Home), Array)
#9 /home/clients/boldyrek_ftp0/domains/tcl.makmalauto.com/html/cron/grabber/system/classes/kohana/request.php(964): Kohana_Request_Client_Internal->execute(Object(Request))
#10 /home/clients/boldyrek_ftp0/domains/tcl.makmalauto.com/html/cron/grabber/index.php(110): Kohana_Request->execute()
#11 {main}
27-07-2012 09:40:01 --- INFO: start: 27-07-2012 09:40:01
27-07-2012 09:40:01 --- INFO: ----------Source_Megaavto (cli)
27-07-2012 09:44:39 --- ERROR: Database_Exception [ 0 ]: [1062] Duplicate entry '2T2HA31U25C043203-86680' for key 'vincode_option' ( INSERT INTO `ccl_grabber_options` (`vincode`, `option`, `exists`) VALUES ('2T2HA31U25C043203', '86680', '0') ) ~ MODPATH/database/classes/kohana/database/mysql.php [ 181 ]
#0 /home/clients/boldyrek_ftp0/domains/tcl.makmalauto.com/html/cron/grabber/modules/database/classes/kohana/database/query.php(225): Kohana_Database_MySQL->query(2, 'INSERT INTO `cc...', false, Array)
#1 /home/clients/boldyrek_ftp0/domains/tcl.makmalauto.com/html/cron/grabber/modules/jelly/classes/jelly/builder/core.php(108): Kohana_Database_Query->execute('production')
#2 /home/clients/boldyrek_ftp0/domains/tcl.makmalauto.com/html/cron/grabber/modules/jelly/classes/jelly/model/core.php(474): Jelly_Builder_Core->execute()
#3 /home/clients/boldyrek_ftp0/domains/tcl.makmalauto.com/html/cron/grabber/application/1.1.0/classes/source.php(328): Jelly_Model_Core->save()
#4 /home/clients/boldyrek_ftp0/domains/tcl.makmalauto.com/html/cron/grabber/application/1.1.0/classes/source/megaavto.php(129): Source->_cache_options(2, 9)
#5 /home/clients/boldyrek_ftp0/domains/tcl.makmalauto.com/html/cron/grabber/application/1.1.0/classes/source.php(48): Source_Megaavto->execute()
#6 /home/clients/boldyrek_ftp0/domains/tcl.makmalauto.com/html/cron/grabber/application/1.1.0/classes/controller/home.php(35): Source->run()
#7 [internal function]: Controller_Home->action_execute('9', 'home/execute/9', Object(Route))
#8 /home/clients/boldyrek_ftp0/domains/tcl.makmalauto.com/html/cron/grabber/system/classes/kohana/request/client/internal.php(132): ReflectionMethod->invokeArgs(Object(Controller_Home), Array)
#9 /home/clients/boldyrek_ftp0/domains/tcl.makmalauto.com/html/cron/grabber/system/classes/kohana/request.php(964): Kohana_Request_Client_Internal->execute(Object(Request))
#10 /home/clients/boldyrek_ftp0/domains/tcl.makmalauto.com/html/cron/grabber/index.php(110): Kohana_Request->execute()
#11 {main}
27-07-2012 10:00:01 --- INFO: start: 27-07-2012 10:00:01
27-07-2012 10:00:01 --- INFO: ----------Source_Adesa (cli)
27-07-2012 10:00:02 --- INFO: Authorized request
27-07-2012 10:00:20 --- ERROR: Database_Exception [ 0 ]: [1062] Duplicate entry '2T2HA31UX5C048245-86680' for key 'vincode_option' ( INSERT INTO `ccl_grabber_options` (`vincode`, `option`, `exists`) VALUES ('2T2HA31UX5C048245', '86680', '0') ) ~ MODPATH/database/classes/kohana/database/mysql.php [ 181 ]
#0 /home/clients/boldyrek_ftp0/domains/tcl.makmalauto.com/html/cron/grabber/modules/database/classes/kohana/database/query.php(225): Kohana_Database_MySQL->query(2, 'INSERT INTO `cc...', false, Array)
#1 /home/clients/boldyrek_ftp0/domains/tcl.makmalauto.com/html/cron/grabber/modules/jelly/classes/jelly/builder/core.php(108): Kohana_Database_Query->execute('production')
#2 /home/clients/boldyrek_ftp0/domains/tcl.makmalauto.com/html/cron/grabber/modules/jelly/classes/jelly/model/core.php(474): Jelly_Builder_Core->execute()
#3 /home/clients/boldyrek_ftp0/domains/tcl.makmalauto.com/html/cron/grabber/application/1.1.0/classes/source.php(328): Jelly_Model_Core->save()
#4 /home/clients/boldyrek_ftp0/domains/tcl.makmalauto.com/html/cron/grabber/application/1.1.0/classes/source/adesa.php(115): Source->_cache_options(2, 2)
#5 /home/clients/boldyrek_ftp0/domains/tcl.makmalauto.com/html/cron/grabber/application/1.1.0/classes/source.php(48): Source_Adesa->execute()
#6 /home/clients/boldyrek_ftp0/domains/tcl.makmalauto.com/html/cron/grabber/application/1.1.0/classes/controller/home.php(35): Source->run()
#7 [internal function]: Controller_Home->action_execute('2', 'home/execute/2', Object(Route))
#8 /home/clients/boldyrek_ftp0/domains/tcl.makmalauto.com/html/cron/grabber/system/classes/kohana/request/client/internal.php(132): ReflectionMethod->invokeArgs(Object(Controller_Home), Array)
#9 /home/clients/boldyrek_ftp0/domains/tcl.makmalauto.com/html/cron/grabber/system/classes/kohana/request.php(964): Kohana_Request_Client_Internal->execute(Object(Request))
#10 /home/clients/boldyrek_ftp0/domains/tcl.makmalauto.com/html/cron/grabber/index.php(110): Kohana_Request->execute()
#11 {main}
27-07-2012 10:30:01 --- INFO: start: 27-07-2012 10:30:01
27-07-2012 10:30:01 --- INFO: ----------Source_Megaavto (cli)
27-07-2012 10:37:34 --- ERROR: Database_Exception [ 0 ]: [1062] Duplicate entry 'JTJHA31U140038942-86680' for key 'vincode_option' ( INSERT INTO `ccl_grabber_options` (`vincode`, `option`, `exists`) VALUES ('JTJHA31U140038942', '86680', '1') ) ~ MODPATH/database/classes/kohana/database/mysql.php [ 181 ]
#0 /home/clients/boldyrek_ftp0/domains/tcl.makmalauto.com/html/cron/grabber/modules/database/classes/kohana/database/query.php(225): Kohana_Database_MySQL->query(2, 'INSERT INTO `cc...', false, Array)
#1 /home/clients/boldyrek_ftp0/domains/tcl.makmalauto.com/html/cron/grabber/modules/jelly/classes/jelly/builder/core.php(108): Kohana_Database_Query->execute('production')
#2 /home/clients/boldyrek_ftp0/domains/tcl.makmalauto.com/html/cron/grabber/modules/jelly/classes/jelly/model/core.php(474): Jelly_Builder_Core->execute()
#3 /home/clients/boldyrek_ftp0/domains/tcl.makmalauto.com/html/cron/grabber/application/1.1.0/classes/source.php(328): Jelly_Model_Core->save()
#4 /home/clients/boldyrek_ftp0/domains/tcl.makmalauto.com/html/cron/grabber/application/1.1.0/classes/source/megaavto.php(129): Source->_cache_options(2, 9)
#5 /home/clients/boldyrek_ftp0/domains/tcl.makmalauto.com/html/cron/grabber/application/1.1.0/classes/source.php(48): Source_Megaavto->execute()
#6 /home/clients/boldyrek_ftp0/domains/tcl.makmalauto.com/html/cron/grabber/application/1.1.0/classes/controller/home.php(35): Source->run()
#7 [internal function]: Controller_Home->action_execute('9', 'home/execute/9', Object(Route))
#8 /home/clients/boldyrek_ftp0/domains/tcl.makmalauto.com/html/cron/grabber/system/classes/kohana/request/client/internal.php(132): ReflectionMethod->invokeArgs(Object(Controller_Home), Array)
#9 /home/clients/boldyrek_ftp0/domains/tcl.makmalauto.com/html/cron/grabber/system/classes/kohana/request.php(964): Kohana_Request_Client_Internal->execute(Object(Request))
#10 /home/clients/boldyrek_ftp0/domains/tcl.makmalauto.com/html/cron/grabber/index.php(110): Kohana_Request->execute()
#11 {main}
27-07-2012 11:10:01 --- INFO: start: 27-07-2012 11:10:01
27-07-2012 11:10:01 --- INFO: ----------Source_Adesa (cli)
27-07-2012 11:10:02 --- INFO: Authorized request
27-07-2012 11:10:10 --- ERROR: Database_Exception [ 0 ]: [1062] Duplicate entry '2T2HA31UX5C048245-86680' for key 'vincode_option' ( INSERT INTO `ccl_grabber_options` (`vincode`, `option`, `exists`) VALUES ('2T2HA31UX5C048245', '86680', '0') ) ~ MODPATH/database/classes/kohana/database/mysql.php [ 181 ]
#0 /home/clients/boldyrek_ftp0/domains/tcl.makmalauto.com/html/cron/grabber/modules/database/classes/kohana/database/query.php(225): Kohana_Database_MySQL->query(2, 'INSERT INTO `cc...', false, Array)
#1 /home/clients/boldyrek_ftp0/domains/tcl.makmalauto.com/html/cron/grabber/modules/jelly/classes/jelly/builder/core.php(108): Kohana_Database_Query->execute('production')
#2 /home/clients/boldyrek_ftp0/domains/tcl.makmalauto.com/html/cron/grabber/modules/jelly/classes/jelly/model/core.php(474): Jelly_Builder_Core->execute()
#3 /home/clients/boldyrek_ftp0/domains/tcl.makmalauto.com/html/cron/grabber/application/1.1.0/classes/source.php(328): Jelly_Model_Core->save()
#4 /home/clients/boldyrek_ftp0/domains/tcl.makmalauto.com/html/cron/grabber/application/1.1.0/classes/source/adesa.php(115): Source->_cache_options(2, 2)
#5 /home/clients/boldyrek_ftp0/domains/tcl.makmalauto.com/html/cron/grabber/application/1.1.0/classes/source.php(48): Source_Adesa->execute()
#6 /home/clients/boldyrek_ftp0/domains/tcl.makmalauto.com/html/cron/grabber/application/1.1.0/classes/controller/home.php(35): Source->run()
#7 [internal function]: Controller_Home->action_execute('2', 'home/execute/2', Object(Route))
#8 /home/clients/boldyrek_ftp0/domains/tcl.makmalauto.com/html/cron/grabber/system/classes/kohana/request/client/internal.php(132): ReflectionMethod->invokeArgs(Object(Controller_Home), Array)
#9 /home/clients/boldyrek_ftp0/domains/tcl.makmalauto.com/html/cron/grabber/system/classes/kohana/request.php(964): Kohana_Request_Client_Internal->execute(Object(Request))
#10 /home/clients/boldyrek_ftp0/domains/tcl.makmalauto.com/html/cron/grabber/index.php(110): Kohana_Request->execute()
#11 {main}
27-07-2012 11:40:01 --- INFO: start: 27-07-2012 11:40:01
27-07-2012 11:40:01 --- INFO: ----------Source_Megaavto (cli)
27-07-2012 11:43:37 --- ERROR: Database_Exception [ 0 ]: [1062] Duplicate entry '2T2HA31U86C091564-86680' for key 'vincode_option' ( INSERT INTO `ccl_grabber_options` (`vincode`, `option`, `exists`) VALUES ('2T2HA31U86C091564', '86680', '0') ) ~ MODPATH/database/classes/kohana/database/mysql.php [ 181 ]
#0 /home/clients/boldyrek_ftp0/domains/tcl.makmalauto.com/html/cron/grabber/modules/database/classes/kohana/database/query.php(225): Kohana_Database_MySQL->query(2, 'INSERT INTO `cc...', false, Array)
#1 /home/clients/boldyrek_ftp0/domains/tcl.makmalauto.com/html/cron/grabber/modules/jelly/classes/jelly/builder/core.php(108): Kohana_Database_Query->execute('production')
#2 /home/clients/boldyrek_ftp0/domains/tcl.makmalauto.com/html/cron/grabber/modules/jelly/classes/jelly/model/core.php(474): Jelly_Builder_Core->execute()
#3 /home/clients/boldyrek_ftp0/domains/tcl.makmalauto.com/html/cron/grabber/application/1.1.0/classes/source.php(328): Jelly_Model_Core->save()
#4 /home/clients/boldyrek_ftp0/domains/tcl.makmalauto.com/html/cron/grabber/application/1.1.0/classes/source/megaavto.php(129): Source->_cache_options(2, 9)
#5 /home/clients/boldyrek_ftp0/domains/tcl.makmalauto.com/html/cron/grabber/application/1.1.0/classes/source.php(48): Source_Megaavto->execute()
#6 /home/clients/boldyrek_ftp0/domains/tcl.makmalauto.com/html/cron/grabber/application/1.1.0/classes/controller/home.php(35): Source->run()
#7 [internal function]: Controller_Home->action_execute('9', 'home/execute/9', Object(Route))
#8 /home/clients/boldyrek_ftp0/domains/tcl.makmalauto.com/html/cron/grabber/system/classes/kohana/request/client/internal.php(132): ReflectionMethod->invokeArgs(Object(Controller_Home), Array)
#9 /home/clients/boldyrek_ftp0/domains/tcl.makmalauto.com/html/cron/grabber/system/classes/kohana/request.php(964): Kohana_Request_Client_Internal->execute(Object(Request))
#10 /home/clients/boldyrek_ftp0/domains/tcl.makmalauto.com/html/cron/grabber/index.php(110): Kohana_Request->execute()
#11 {main}
27-07-2012 12:20:01 --- INFO: start: 27-07-2012 12:20:01
27-07-2012 12:20:01 --- INFO: ----------Source_Adesa (cli)
27-07-2012 12:20:02 --- INFO: Authorized request
27-07-2012 12:20:18 --- ERROR: Database_Exception [ 0 ]: [1062] Duplicate entry '2T2HA31UX5C048245-86680' for key 'vincode_option' ( INSERT INTO `ccl_grabber_options` (`vincode`, `option`, `exists`) VALUES ('2T2HA31UX5C048245', '86680', '0') ) ~ MODPATH/database/classes/kohana/database/mysql.php [ 181 ]
#0 /home/clients/boldyrek_ftp0/domains/tcl.makmalauto.com/html/cron/grabber/modules/database/classes/kohana/database/query.php(225): Kohana_Database_MySQL->query(2, 'INSERT INTO `cc...', false, Array)
#1 /home/clients/boldyrek_ftp0/domains/tcl.makmalauto.com/html/cron/grabber/modules/jelly/classes/jelly/builder/core.php(108): Kohana_Database_Query->execute('production')
#2 /home/clients/boldyrek_ftp0/domains/tcl.makmalauto.com/html/cron/grabber/modules/jelly/classes/jelly/model/core.php(474): Jelly_Builder_Core->execute()
#3 /home/clients/boldyrek_ftp0/domains/tcl.makmalauto.com/html/cron/grabber/application/1.1.0/classes/source.php(328): Jelly_Model_Core->save()
#4 /home/clients/boldyrek_ftp0/domains/tcl.makmalauto.com/html/cron/grabber/application/1.1.0/classes/source/adesa.php(115): Source->_cache_options(2, 2)
#5 /home/clients/boldyrek_ftp0/domains/tcl.makmalauto.com/html/cron/grabber/application/1.1.0/classes/source.php(48): Source_Adesa->execute()
#6 /home/clients/boldyrek_ftp0/domains/tcl.makmalauto.com/html/cron/grabber/application/1.1.0/classes/controller/home.php(35): Source->run()
#7 [internal function]: Controller_Home->action_execute('2', 'home/execute/2', Object(Route))
#8 /home/clients/boldyrek_ftp0/domains/tcl.makmalauto.com/html/cron/grabber/system/classes/kohana/request/client/internal.php(132): ReflectionMethod->invokeArgs(Object(Controller_Home), Array)
#9 /home/clients/boldyrek_ftp0/domains/tcl.makmalauto.com/html/cron/grabber/system/classes/kohana/request.php(964): Kohana_Request_Client_Internal->execute(Object(Request))
#10 /home/clients/boldyrek_ftp0/domains/tcl.makmalauto.com/html/cron/grabber/index.php(110): Kohana_Request->execute()
#11 {main}
27-07-2012 12:50:01 --- INFO: start: 27-07-2012 12:50:01
27-07-2012 12:50:01 --- INFO: ----------Source_Megaavto (cli)
27-07-2012 12:53:39 --- ERROR: Database_Exception [ 0 ]: [1062] Duplicate entry '2T2HA31U55C044622-86680' for key 'vincode_option' ( INSERT INTO `ccl_grabber_options` (`vincode`, `option`, `exists`) VALUES ('2T2HA31U55C044622', '86680', '0') ) ~ MODPATH/database/classes/kohana/database/mysql.php [ 181 ]
#0 /home/clients/boldyrek_ftp0/domains/tcl.makmalauto.com/html/cron/grabber/modules/database/classes/kohana/database/query.php(225): Kohana_Database_MySQL->query(2, 'INSERT INTO `cc...', false, Array)
#1 /home/clients/boldyrek_ftp0/domains/tcl.makmalauto.com/html/cron/grabber/modules/jelly/classes/jelly/builder/core.php(108): Kohana_Database_Query->execute('production')
#2 /home/clients/boldyrek_ftp0/domains/tcl.makmalauto.com/html/cron/grabber/modules/jelly/classes/jelly/model/core.php(474): Jelly_Builder_Core->execute()
#3 /home/clients/boldyrek_ftp0/domains/tcl.makmalauto.com/html/cron/grabber/application/1.1.0/classes/source.php(328): Jelly_Model_Core->save()
#4 /home/clients/boldyrek_ftp0/domains/tcl.makmalauto.com/html/cron/grabber/application/1.1.0/classes/source/megaavto.php(129): Source->_cache_options(2, 9)
#5 /home/clients/boldyrek_ftp0/domains/tcl.makmalauto.com/html/cron/grabber/application/1.1.0/classes/source.php(48): Source_Megaavto->execute()
#6 /home/clients/boldyrek_ftp0/domains/tcl.makmalauto.com/html/cron/grabber/application/1.1.0/classes/controller/home.php(35): Source->run()
#7 [internal function]: Controller_Home->action_execute('9', 'home/execute/9', Object(Route))
#8 /home/clients/boldyrek_ftp0/domains/tcl.makmalauto.com/html/cron/grabber/system/classes/kohana/request/client/internal.php(132): ReflectionMethod->invokeArgs(Object(Controller_Home), Array)
#9 /home/clients/boldyrek_ftp0/domains/tcl.makmalauto.com/html/cron/grabber/system/classes/kohana/request.php(964): Kohana_Request_Client_Internal->execute(Object(Request))
#10 /home/clients/boldyrek_ftp0/domains/tcl.makmalauto.com/html/cron/grabber/index.php(110): Kohana_Request->execute()
#11 {main}
27-07-2012 13:20:01 --- INFO: start: 27-07-2012 13:20:01
27-07-2012 13:20:01 --- INFO: ----------Source_Adesa (cli)
27-07-2012 13:20:02 --- INFO: Authorized request
27-07-2012 13:20:14 --- ERROR: Database_Exception [ 0 ]: [1062] Duplicate entry 'JTJHA31U040019380-86680' for key 'vincode_option' ( INSERT INTO `ccl_grabber_options` (`vincode`, `option`, `exists`) VALUES ('JTJHA31U040019380', '86680', '0') ) ~ MODPATH/database/classes/kohana/database/mysql.php [ 181 ]
#0 /home/clients/boldyrek_ftp0/domains/tcl.makmalauto.com/html/cron/grabber/modules/database/classes/kohana/database/query.php(225): Kohana_Database_MySQL->query(2, 'INSERT INTO `cc...', false, Array)
#1 /home/clients/boldyrek_ftp0/domains/tcl.makmalauto.com/html/cron/grabber/modules/jelly/classes/jelly/builder/core.php(108): Kohana_Database_Query->execute('production')
#2 /home/clients/boldyrek_ftp0/domains/tcl.makmalauto.com/html/cron/grabber/modules/jelly/classes/jelly/model/core.php(474): Jelly_Builder_Core->execute()
#3 /home/clients/boldyrek_ftp0/domains/tcl.makmalauto.com/html/cron/grabber/application/1.1.0/classes/source.php(328): Jelly_Model_Core->save()
#4 /home/clients/boldyrek_ftp0/domains/tcl.makmalauto.com/html/cron/grabber/application/1.1.0/classes/source/adesa.php(115): Source->_cache_options(2, 2)
#5 /home/clients/boldyrek_ftp0/domains/tcl.makmalauto.com/html/cron/grabber/application/1.1.0/classes/source.php(48): Source_Adesa->execute()
#6 /home/clients/boldyrek_ftp0/domains/tcl.makmalauto.com/html/cron/grabber/application/1.1.0/classes/controller/home.php(35): Source->run()
#7 [internal function]: Controller_Home->action_execute('2', 'home/execute/2', Object(Route))
#8 /home/clients/boldyrek_ftp0/domains/tcl.makmalauto.com/html/cron/grabber/system/classes/kohana/request/client/internal.php(132): ReflectionMethod->invokeArgs(Object(Controller_Home), Array)
#9 /home/clients/boldyrek_ftp0/domains/tcl.makmalauto.com/html/cron/grabber/system/classes/kohana/request.php(964): Kohana_Request_Client_Internal->execute(Object(Request))
#10 /home/clients/boldyrek_ftp0/domains/tcl.makmalauto.com/html/cron/grabber/index.php(110): Kohana_Request->execute()
#11 {main}
27-07-2012 13:50:01 --- INFO: start: 27-07-2012 13:50:01
27-07-2012 13:50:01 --- INFO: ----------Source_Megaavto (cli)
27-07-2012 13:53:35 --- ERROR: Database_Exception [ 0 ]: [1062] Duplicate entry '2T2HA31U34C013920-86680' for key 'vincode_option' ( INSERT INTO `ccl_grabber_options` (`vincode`, `option`, `exists`) VALUES ('2T2HA31U34C013920', '86680', '0') ) ~ MODPATH/database/classes/kohana/database/mysql.php [ 181 ]
#0 /home/clients/boldyrek_ftp0/domains/tcl.makmalauto.com/html/cron/grabber/modules/database/classes/kohana/database/query.php(225): Kohana_Database_MySQL->query(2, 'INSERT INTO `cc...', false, Array)
#1 /home/clients/boldyrek_ftp0/domains/tcl.makmalauto.com/html/cron/grabber/modules/jelly/classes/jelly/builder/core.php(108): Kohana_Database_Query->execute('production')
#2 /home/clients/boldyrek_ftp0/domains/tcl.makmalauto.com/html/cron/grabber/modules/jelly/classes/jelly/model/core.php(474): Jelly_Builder_Core->execute()
#3 /home/clients/boldyrek_ftp0/domains/tcl.makmalauto.com/html/cron/grabber/application/1.1.0/classes/source.php(328): Jelly_Model_Core->save()
#4 /home/clients/boldyrek_ftp0/domains/tcl.makmalauto.com/html/cron/grabber/application/1.1.0/classes/source/megaavto.php(129): Source->_cache_options(2, 9)
#5 /home/clients/boldyrek_ftp0/domains/tcl.makmalauto.com/html/cron/grabber/application/1.1.0/classes/source.php(48): Source_Megaavto->execute()
#6 /home/clients/boldyrek_ftp0/domains/tcl.makmalauto.com/html/cron/grabber/application/1.1.0/classes/controller/home.php(35): Source->run()
#7 [internal function]: Controller_Home->action_execute('9', 'home/execute/9', Object(Route))
#8 /home/clients/boldyrek_ftp0/domains/tcl.makmalauto.com/html/cron/grabber/system/classes/kohana/request/client/internal.php(132): ReflectionMethod->invokeArgs(Object(Controller_Home), Array)
#9 /home/clients/boldyrek_ftp0/domains/tcl.makmalauto.com/html/cron/grabber/system/classes/kohana/request.php(964): Kohana_Request_Client_Internal->execute(Object(Request))
#10 /home/clients/boldyrek_ftp0/domains/tcl.makmalauto.com/html/cron/grabber/index.php(110): Kohana_Request->execute()
#11 {main}
27-07-2012 16:10:01 --- INFO: start: 27-07-2012 16:10:01
27-07-2012 16:10:01 --- INFO: ----------Source_Adesa (cli)
27-07-2012 16:10:03 --- INFO: Authorized request
27-07-2012 16:10:15 --- ERROR: Database_Exception [ 0 ]: [1062] Duplicate entry 'JTJHA31U040019380-86680' for key 'vincode_option' ( INSERT INTO `ccl_grabber_options` (`vincode`, `option`, `exists`) VALUES ('JTJHA31U040019380', '86680', '0') ) ~ MODPATH/database/classes/kohana/database/mysql.php [ 181 ]
#0 /home/clients/boldyrek_ftp0/domains/tcl.makmalauto.com/html/cron/grabber/modules/database/classes/kohana/database/query.php(225): Kohana_Database_MySQL->query(2, 'INSERT INTO `cc...', false, Array)
#1 /home/clients/boldyrek_ftp0/domains/tcl.makmalauto.com/html/cron/grabber/modules/jelly/classes/jelly/builder/core.php(108): Kohana_Database_Query->execute('production')
#2 /home/clients/boldyrek_ftp0/domains/tcl.makmalauto.com/html/cron/grabber/modules/jelly/classes/jelly/model/core.php(474): Jelly_Builder_Core->execute()
#3 /home/clients/boldyrek_ftp0/domains/tcl.makmalauto.com/html/cron/grabber/application/1.1.0/classes/source.php(328): Jelly_Model_Core->save()
#4 /home/clients/boldyrek_ftp0/domains/tcl.makmalauto.com/html/cron/grabber/application/1.1.0/classes/source/adesa.php(115): Source->_cache_options(2, 2)
#5 /home/clients/boldyrek_ftp0/domains/tcl.makmalauto.com/html/cron/grabber/application/1.1.0/classes/source.php(48): Source_Adesa->execute()
#6 /home/clients/boldyrek_ftp0/domains/tcl.makmalauto.com/html/cron/grabber/application/1.1.0/classes/controller/home.php(35): Source->run()
#7 [internal function]: Controller_Home->action_execute('2', 'home/execute/2', Object(Route))
#8 /home/clients/boldyrek_ftp0/domains/tcl.makmalauto.com/html/cron/grabber/system/classes/kohana/request/client/internal.php(132): ReflectionMethod->invokeArgs(Object(Controller_Home), Array)
#9 /home/clients/boldyrek_ftp0/domains/tcl.makmalauto.com/html/cron/grabber/system/classes/kohana/request.php(964): Kohana_Request_Client_Internal->execute(Object(Request))
#10 /home/clients/boldyrek_ftp0/domains/tcl.makmalauto.com/html/cron/grabber/index.php(110): Kohana_Request->execute()
#11 {main}
27-07-2012 16:40:01 --- INFO: start: 27-07-2012 16:40:01
27-07-2012 16:40:01 --- INFO: ----------Source_Megaavto (cli)
27-07-2012 16:51:20 --- ERROR: Database_Exception [ 0 ]: [1062] Duplicate entry '2T2HA31U46C098009-86680' for key 'vincode_option' ( INSERT INTO `ccl_grabber_options` (`vincode`, `option`, `exists`) VALUES ('2T2HA31U46C098009', '86680', '0') ) ~ MODPATH/database/classes/kohana/database/mysql.php [ 181 ]
#0 /home/clients/boldyrek_ftp0/domains/tcl.makmalauto.com/html/cron/grabber/modules/database/classes/kohana/database/query.php(225): Kohana_Database_MySQL->query(2, 'INSERT INTO `cc...', false, Array)
#1 /home/clients/boldyrek_ftp0/domains/tcl.makmalauto.com/html/cron/grabber/modules/jelly/classes/jelly/builder/core.php(108): Kohana_Database_Query->execute('production')
#2 /home/clients/boldyrek_ftp0/domains/tcl.makmalauto.com/html/cron/grabber/modules/jelly/classes/jelly/model/core.php(474): Jelly_Builder_Core->execute()
#3 /home/clients/boldyrek_ftp0/domains/tcl.makmalauto.com/html/cron/grabber/application/1.1.0/classes/source.php(328): Jelly_Model_Core->save()
#4 /home/clients/boldyrek_ftp0/domains/tcl.makmalauto.com/html/cron/grabber/application/1.1.0/classes/source/megaavto.php(129): Source->_cache_options(2, 9)
#5 /home/clients/boldyrek_ftp0/domains/tcl.makmalauto.com/html/cron/grabber/application/1.1.0/classes/source.php(48): Source_Megaavto->execute()
#6 /home/clients/boldyrek_ftp0/domains/tcl.makmalauto.com/html/cron/grabber/application/1.1.0/classes/controller/home.php(35): Source->run()
#7 [internal function]: Controller_Home->action_execute('9', 'home/execute/9', Object(Route))
#8 /home/clients/boldyrek_ftp0/domains/tcl.makmalauto.com/html/cron/grabber/system/classes/kohana/request/client/internal.php(132): ReflectionMethod->invokeArgs(Object(Controller_Home), Array)
#9 /home/clients/boldyrek_ftp0/domains/tcl.makmalauto.com/html/cron/grabber/system/classes/kohana/request.php(964): Kohana_Request_Client_Internal->execute(Object(Request))
#10 /home/clients/boldyrek_ftp0/domains/tcl.makmalauto.com/html/cron/grabber/index.php(110): Kohana_Request->execute()
#11 {main}
27-07-2012 18:10:01 --- INFO: start: 27-07-2012 18:10:01
27-07-2012 18:10:01 --- INFO: ----------Source_Adesa (cli)
27-07-2012 18:10:02 --- INFO: Authorized request
27-07-2012 18:10:15 --- ERROR: Database_Exception [ 0 ]: [1062] Duplicate entry 'JTJHA31U040019380-86680' for key 'vincode_option' ( INSERT INTO `ccl_grabber_options` (`vincode`, `option`, `exists`) VALUES ('JTJHA31U040019380', '86680', '0') ) ~ MODPATH/database/classes/kohana/database/mysql.php [ 181 ]
#0 /home/clients/boldyrek_ftp0/domains/tcl.makmalauto.com/html/cron/grabber/modules/database/classes/kohana/database/query.php(225): Kohana_Database_MySQL->query(2, 'INSERT INTO `cc...', false, Array)
#1 /home/clients/boldyrek_ftp0/domains/tcl.makmalauto.com/html/cron/grabber/modules/jelly/classes/jelly/builder/core.php(108): Kohana_Database_Query->execute('production')
#2 /home/clients/boldyrek_ftp0/domains/tcl.makmalauto.com/html/cron/grabber/modules/jelly/classes/jelly/model/core.php(474): Jelly_Builder_Core->execute()
#3 /home/clients/boldyrek_ftp0/domains/tcl.makmalauto.com/html/cron/grabber/application/1.1.0/classes/source.php(328): Jelly_Model_Core->save()
#4 /home/clients/boldyrek_ftp0/domains/tcl.makmalauto.com/html/cron/grabber/application/1.1.0/classes/source/adesa.php(115): Source->_cache_options(2, 2)
#5 /home/clients/boldyrek_ftp0/domains/tcl.makmalauto.com/html/cron/grabber/application/1.1.0/classes/source.php(48): Source_Adesa->execute()
#6 /home/clients/boldyrek_ftp0/domains/tcl.makmalauto.com/html/cron/grabber/application/1.1.0/classes/controller/home.php(35): Source->run()
#7 [internal function]: Controller_Home->action_execute('2', 'home/execute/2', Object(Route))
#8 /home/clients/boldyrek_ftp0/domains/tcl.makmalauto.com/html/cron/grabber/system/classes/kohana/request/client/internal.php(132): ReflectionMethod->invokeArgs(Object(Controller_Home), Array)
#9 /home/clients/boldyrek_ftp0/domains/tcl.makmalauto.com/html/cron/grabber/system/classes/kohana/request.php(964): Kohana_Request_Client_Internal->execute(Object(Request))
#10 /home/clients/boldyrek_ftp0/domains/tcl.makmalauto.com/html/cron/grabber/index.php(110): Kohana_Request->execute()
#11 {main}
27-07-2012 18:40:01 --- INFO: start: 27-07-2012 18:40:01
27-07-2012 18:40:01 --- INFO: ----------Source_Megaavto (cli)
27-07-2012 18:44:16 --- ERROR: Database_Exception [ 0 ]: [1062] Duplicate entry '2T2HA31U55C044622-86680' for key 'vincode_option' ( INSERT INTO `ccl_grabber_options` (`vincode`, `option`, `exists`) VALUES ('2T2HA31U55C044622', '86680', '0') ) ~ MODPATH/database/classes/kohana/database/mysql.php [ 181 ]
#0 /home/clients/boldyrek_ftp0/domains/tcl.makmalauto.com/html/cron/grabber/modules/database/classes/kohana/database/query.php(225): Kohana_Database_MySQL->query(2, 'INSERT INTO `cc...', false, Array)
#1 /home/clients/boldyrek_ftp0/domains/tcl.makmalauto.com/html/cron/grabber/modules/jelly/classes/jelly/builder/core.php(108): Kohana_Database_Query->execute('production')
#2 /home/clients/boldyrek_ftp0/domains/tcl.makmalauto.com/html/cron/grabber/modules/jelly/classes/jelly/model/core.php(474): Jelly_Builder_Core->execute()
#3 /home/clients/boldyrek_ftp0/domains/tcl.makmalauto.com/html/cron/grabber/application/1.1.0/classes/source.php(328): Jelly_Model_Core->save()
#4 /home/clients/boldyrek_ftp0/domains/tcl.makmalauto.com/html/cron/grabber/application/1.1.0/classes/source/megaavto.php(129): Source->_cache_options(2, 9)
#5 /home/clients/boldyrek_ftp0/domains/tcl.makmalauto.com/html/cron/grabber/application/1.1.0/classes/source.php(48): Source_Megaavto->execute()
#6 /home/clients/boldyrek_ftp0/domains/tcl.makmalauto.com/html/cron/grabber/application/1.1.0/classes/controller/home.php(35): Source->run()
#7 [internal function]: Controller_Home->action_execute('9', 'home/execute/9', Object(Route))
#8 /home/clients/boldyrek_ftp0/domains/tcl.makmalauto.com/html/cron/grabber/system/classes/kohana/request/client/internal.php(132): ReflectionMethod->invokeArgs(Object(Controller_Home), Array)
#9 /home/clients/boldyrek_ftp0/domains/tcl.makmalauto.com/html/cron/grabber/system/classes/kohana/request.php(964): Kohana_Request_Client_Internal->execute(Object(Request))
#10 /home/clients/boldyrek_ftp0/domains/tcl.makmalauto.com/html/cron/grabber/index.php(110): Kohana_Request->execute()
#11 {main}