
27-09-2012 06:10:01 --- INFO: start: 27-09-2012 06:10:01
27-09-2012 06:10:01 --- INFO: ----------Source_Adesa (cli)
27-09-2012 06:10:01 --- ERROR: Unauthorized request
27-09-2012 06:10:01 --- INFO: finish: 27-09-2012 06:10:01
27-09-2012 06:10:01 --- INFO: elapsed time: ~0.55 sec., memory usage: ~1.34 Mb.
27-09-2012 06:40:01 --- INFO: start: 27-09-2012 06:40:01
27-09-2012 06:40:01 --- INFO: ----------Source_Megaavto (cli)
27-09-2012 06:58:31 --- INFO: Lexus GX 470 - found: 143, pass primary filters: 93, did not pass the filter by colors: 52, did not pass the filter by options: 21, added: 20, new vincodes: 2
27-09-2012 06:58:31 --- INFO: finish: 27-09-2012 06:58:31
27-09-2012 06:58:31 --- INFO: elapsed time: ~1110.12 sec., memory usage: ~2.75 Mb.
27-09-2012 08:10:01 --- INFO: start: 27-09-2012 08:10:01
27-09-2012 08:10:01 --- INFO: ----------Source_Adesa (cli)
27-09-2012 08:10:02 --- ERROR: Unauthorized request
27-09-2012 08:10:02 --- INFO: finish: 27-09-2012 08:10:02
27-09-2012 08:10:02 --- INFO: elapsed time: ~0.55 sec., memory usage: ~1.34 Mb.
27-09-2012 08:40:01 --- INFO: start: 27-09-2012 08:40:01
27-09-2012 08:40:01 --- INFO: ----------Source_Megaavto (cli)
27-09-2012 08:48:35 --- INFO: Lexus GX 470 - found: 145, pass primary filters: 99, did not pass the filter by colors: 2, did not pass the filter by options: 17, added: 80, new vincodes: 0
27-09-2012 08:48:35 --- INFO: finish: 27-09-2012 08:48:35
27-09-2012 08:48:35 --- INFO: elapsed time: ~513.83 sec., memory usage: ~2.77 Mb.
27-09-2012 08:40:59 --- INFO: start: 27-09-2012 08:40:59
27-09-2012 08:40:59 --- INFO: ----------Source_Megaavto (apache2handler)
27-09-2012 08:48:35 --- ERROR: Database_Exception [ 0 ]: [1062] Duplicate entry 'JTJBT20X350078852-86680A' for key 'vincode_option' ( INSERT INTO `ccl_grabber_options` (`vincode`, `option`, `exists`) VALUES ('JTJBT20X350078852', '86680A', '1') ) ~ MODPATH/database/classes/kohana/database/mysql.php [ 181 ]
#0 /home/clients/boldyrek_ftp0/domains/tcl.makmalauto.com/html/cron/grabber/modules/database/classes/kohana/database/query.php(225): Kohana_Database_MySQL->query(2, 'INSERT INTO `cc...', false, Array)
#1 /home/clients/boldyrek_ftp0/domains/tcl.makmalauto.com/html/cron/grabber/modules/jelly/classes/jelly/builder/core.php(108): Kohana_Database_Query->execute('production')
#2 /home/clients/boldyrek_ftp0/domains/tcl.makmalauto.com/html/cron/grabber/modules/jelly/classes/jelly/model/core.php(474): Jelly_Builder_Core->execute()
#3 /home/clients/boldyrek_ftp0/domains/tcl.makmalauto.com/html/cron/grabber/application/1.1.0/classes/source.php(328): Jelly_Model_Core->save()
#4 /home/clients/boldyrek_ftp0/domains/tcl.makmalauto.com/html/cron/grabber/application/1.1.0/classes/source/megaavto.php(129): Source->_cache_options(5, 9)
#5 /home/clients/boldyrek_ftp0/domains/tcl.makmalauto.com/html/cron/grabber/application/1.1.0/classes/source.php(48): Source_Megaavto->execute()
#6 /home/clients/boldyrek_ftp0/domains/tcl.makmalauto.com/html/cron/grabber/application/1.1.0/classes/controller/home.php(35): Source->run()
#7 [internal function]: Controller_Home->action_execute('9', 'home/execute/9', Object(Route))
#8 /home/clients/boldyrek_ftp0/domains/tcl.makmalauto.com/html/cron/grabber/system/classes/kohana/request/client/internal.php(132): ReflectionMethod->invokeArgs(Object(Controller_Home), Array)
#9 /home/clients/boldyrek_ftp0/domains/tcl.makmalauto.com/html/cron/grabber/system/classes/kohana/request.php(964): Kohana_Request_Client_Internal->execute(Object(Request))
#10 /home/clients/boldyrek_ftp0/domains/tcl.makmalauto.com/html/cron/grabber/index.php(110): Kohana_Request->execute()
#11 {main}
27-09-2012 09:10:01 --- INFO: start: 27-09-2012 09:10:01
27-09-2012 09:10:01 --- INFO: ----------Source_Adesa (cli)
27-09-2012 09:10:01 --- ERROR: Unauthorized request
27-09-2012 09:10:01 --- INFO: finish: 27-09-2012 09:10:01
27-09-2012 09:10:01 --- INFO: elapsed time: ~0.57 sec., memory usage: ~1.34 Mb.
27-09-2012 09:03:34 --- INFO: start: 27-09-2012 09:03:34
27-09-2012 09:03:34 --- INFO: ----------Source_Megaavto (apache2handler)
27-09-2012 09:14:04 --- INFO: Lexus GX 470 - found: 136, pass primary filters: 92, did not pass the filter by colors: 38, did not pass the filter by options: 21, added: 33, new vincodes: 1
27-09-2012 09:14:04 --- INFO: finish: 27-09-2012 09:14:04
27-09-2012 09:14:04 --- INFO: elapsed time: ~630.89 sec., memory usage: ~2.79 Mb.
27-09-2012 09:17:03 --- INFO: start: 27-09-2012 09:17:03
27-09-2012 09:17:03 --- INFO: ----------Source_Megaavto (apache2handler)
27-09-2012 09:34:27 --- INFO: Lexus GX 470 - found: 136, pass primary filters: 93, did not pass the filter by colors: 38, did not pass the filter by options: 22, added: 33, new vincodes: 0
27-09-2012 09:34:27 --- INFO: finish: 27-09-2012 09:34:27
27-09-2012 09:34:27 --- INFO: elapsed time: ~1043.83 sec., memory usage: ~2.77 Mb.
27-09-2012 09:34:28 --- INFO: start: 27-09-2012 09:34:28
27-09-2012 09:34:28 --- INFO: ----------Source_Megaavto (apache2handler)
27-09-2012 09:48:37 --- INFO: Lexus GX 470 - found: 142, pass primary filters: 94, did not pass the filter by colors: 69, did not pass the filter by options: 22, added: 3, new vincodes: 1
27-09-2012 09:48:37 --- INFO: finish: 27-09-2012 09:48:37
27-09-2012 09:48:37 --- INFO: elapsed time: ~848.55 sec., memory usage: ~2.83 Mb.
27-09-2012 09:40:01 --- INFO: start: 27-09-2012 09:40:01
27-09-2012 09:40:01 --- INFO: ----------Source_Megaavto (cli)
27-09-2012 09:52:01 --- INFO: Lexus GX 470 - found: 142, pass primary filters: 95, did not pass the filter by colors: 14, did not pass the filter by options: 13, added: 68, new vincodes: 0
27-09-2012 09:52:01 --- INFO: finish: 27-09-2012 09:52:01
27-09-2012 09:52:01 --- INFO: elapsed time: ~720.3 sec., memory usage: ~2.78 Mb.
27-09-2012 08:51:38 --- INFO: start: 27-09-2012 08:51:38
27-09-2012 08:51:38 --- INFO: ----------Source_Gsmotors (apache2handler)
27-09-2012 09:03:30 --- INFO: Lexus RX 330 - found: 212, pass primary filters: 0, did not pass the filter by colors: 0, did not pass the filter by options: 0, added: 0, new vincodes: 0
27-09-2012 09:05:26 --- INFO: Lexus RX 400H - found: 36, pass primary filters: 0, did not pass the filter by colors: 0, did not pass the filter by options: 0, added: 0, new vincodes: 0
27-09-2012 09:09:23 --- INFO: Lexus GX 470 - found: 79, pass primary filters: 0, did not pass the filter by colors: 0, did not pass the filter by options: 0, added: 0, new vincodes: 0
27-09-2012 09:16:24 --- INFO: Lexus GX 470 - found: 136, pass primary filters: 0, did not pass the filter by colors: 0, did not pass the filter by options: 0, added: 0, new vincodes: 0
27-09-2012 09:19:03 --- INFO: Lexus LX 470 - found: 53, pass primary filters: 0, did not pass the filter by colors: 0, did not pass the filter by options: , added: 0, new vincodes: 0
27-09-2012 09:19:50 --- INFO: Lexus LX 470 - found: 19, pass primary filters: 0, did not pass the filter by colors: 0, did not pass the filter by options: , added: 0, new vincodes: 0
27-09-2012 09:21:02 --- INFO: Toyota Land Cruiser - found: 21, pass primary filters: 1, did not pass the filter by colors: 0, did not pass the filter by options: 0, added: 1, new vincodes: 0
27-09-2012 09:27:03 --- INFO: Toyota 4RUNNER 4WD V6 - found: 120, pass primary filters: 0, did not pass the filter by colors: 0, did not pass the filter by options: , added: 0, new vincodes: 0
27-09-2012 09:34:33 --- INFO: Toyota Highlander 4WD - found: 165, pass primary filters: 2, did not pass the filter by colors: 2, did not pass the filter by options: 0, added: 0, new vincodes: 0
27-09-2012 09:37:37 --- INFO: Toyota Highlander - found: 78, pass primary filters: 0, did not pass the filter by colors: 0, did not pass the filter by options: , added: 0, new vincodes: 0
27-09-2012 09:43:29 --- INFO: Lexus RX 350 - found: 107, pass primary filters: 29, did not pass the filter by colors: 22, did not pass the filter by options: 4, added: 3, new vincodes: 9
27-09-2012 09:52:35 --- INFO: Toyota 4RUNNER Limited V6 - found: 235, pass primary filters: 4, did not pass the filter by colors: 1, did not pass the filter by options: , added: 3, new vincodes: 3
27-09-2012 09:52:35 --- INFO: finish: 27-09-2012 09:52:35
27-09-2012 09:52:35 --- INFO: elapsed time: ~3657.6 sec., memory usage: ~2.52 Mb.
27-09-2012 10:00:01 --- INFO: start: 27-09-2012 10:00:01
27-09-2012 10:00:01 --- INFO: ----------Source_Adesa (cli)
27-09-2012 10:00:02 --- ERROR: Unauthorized request
27-09-2012 10:00:02 --- INFO: finish: 27-09-2012 10:00:02
27-09-2012 10:00:02 --- INFO: elapsed time: ~0.24 sec., memory usage: ~1.34 Mb.
27-09-2012 10:30:02 --- INFO: start: 27-09-2012 10:30:02
27-09-2012 10:30:02 --- INFO: ----------Source_Megaavto (cli)
27-09-2012 10:45:14 --- INFO: Lexus GX 470 - found: 143, pass primary filters: 94, did not pass the filter by colors: 37, did not pass the filter by options: 22, added: 35, new vincodes: 0
27-09-2012 10:45:14 --- INFO: finish: 27-09-2012 10:45:14
27-09-2012 10:45:14 --- INFO: elapsed time: ~912.18 sec., memory usage: ~2.78 Mb.
27-09-2012 11:10:02 --- INFO: start: 27-09-2012 11:10:02
27-09-2012 11:10:02 --- INFO: ----------Source_Adesa (cli)
27-09-2012 11:10:02 --- ERROR: Unauthorized request
27-09-2012 11:10:02 --- INFO: finish: 27-09-2012 11:10:02
27-09-2012 11:10:02 --- INFO: elapsed time: ~0.58 sec., memory usage: ~1.34 Mb.
27-09-2012 11:40:02 --- INFO: start: 27-09-2012 11:40:02
27-09-2012 11:40:02 --- INFO: ----------Source_Megaavto (cli)
27-09-2012 11:54:57 --- INFO: Lexus GX 470 - found: 146, pass primary filters: 99, did not pass the filter by colors: 41, did not pass the filter by options: 21, added: 37, new vincodes: 0
27-09-2012 11:54:57 --- INFO: finish: 27-09-2012 11:54:57
27-09-2012 11:54:57 --- INFO: elapsed time: ~895.24 sec., memory usage: ~2.83 Mb.
27-09-2012 12:20:01 --- INFO: start: 27-09-2012 12:20:01
27-09-2012 12:20:01 --- INFO: ----------Source_Adesa (cli)
27-09-2012 12:20:02 --- ERROR: Unauthorized request
27-09-2012 12:20:02 --- INFO: finish: 27-09-2012 12:20:02
27-09-2012 12:20:02 --- INFO: elapsed time: ~0.85 sec., memory usage: ~1.34 Mb.
27-09-2012 12:50:01 --- INFO: start: 27-09-2012 12:50:01
27-09-2012 12:50:01 --- INFO: ----------Source_Megaavto (cli)
27-09-2012 13:06:59 --- INFO: Lexus GX 470 - found: 146, pass primary filters: 95, did not pass the filter by colors: 42, did not pass the filter by options: 21, added: 32, new vincodes: 0
27-09-2012 13:06:59 --- INFO: finish: 27-09-2012 13:06:59
27-09-2012 13:06:59 --- INFO: elapsed time: ~1018.27 sec., memory usage: ~2.77 Mb.
27-09-2012 13:20:01 --- INFO: start: 27-09-2012 13:20:01
27-09-2012 13:20:01 --- INFO: ----------Source_Adesa (cli)
27-09-2012 13:20:01 --- ERROR: Unauthorized request
27-09-2012 13:20:01 --- INFO: finish: 27-09-2012 13:20:01
27-09-2012 13:20:01 --- INFO: elapsed time: ~0.23 sec., memory usage: ~1.34 Mb.
27-09-2012 13:50:01 --- INFO: start: 27-09-2012 13:50:01
27-09-2012 13:50:01 --- INFO: ----------Source_Megaavto (cli)
27-09-2012 14:04:44 --- INFO: Lexus GX 470 - found: 147, pass primary filters: 53, did not pass the filter by colors: 25, did not pass the filter by options: 6, added: 22, new vincodes: 0
27-09-2012 14:04:44 --- INFO: finish: 27-09-2012 14:04:44
27-09-2012 14:04:44 --- INFO: elapsed time: ~882.82 sec., memory usage: ~2.36 Mb.
27-09-2012 16:10:01 --- INFO: start: 27-09-2012 16:10:01
27-09-2012 16:10:01 --- INFO: ----------Source_Adesa (cli)
27-09-2012 16:10:02 --- ERROR: Unauthorized request
27-09-2012 16:10:02 --- INFO: finish: 27-09-2012 16:10:02
27-09-2012 16:10:02 --- INFO: elapsed time: ~0.52 sec., memory usage: ~1.34 Mb.
27-09-2012 16:40:01 --- INFO: start: 27-09-2012 16:40:01
27-09-2012 16:40:01 --- INFO: ----------Source_Megaavto (cli)
27-09-2012 16:44:04 --- INFO: Lexus GX 470 - found: 147, pass primary filters: 96, did not pass the filter by colors: 44, did not pass the filter by options: 19, added: 33, new vincodes: 1
27-09-2012 16:44:04 --- INFO: finish: 27-09-2012 16:44:04
27-09-2012 16:44:04 --- INFO: elapsed time: ~243 sec., memory usage: ~2.81 Mb.
27-09-2012 18:10:01 --- INFO: start: 27-09-2012 18:10:01
27-09-2012 18:10:01 --- INFO: ----------Source_Adesa (cli)
27-09-2012 18:10:02 --- ERROR: Unauthorized request
27-09-2012 18:10:02 --- INFO: finish: 27-09-2012 18:10:02
27-09-2012 18:10:02 --- INFO: elapsed time: ~0.59 sec., memory usage: ~1.34 Mb.
27-09-2012 18:40:01 --- INFO: start: 27-09-2012 18:40:01
27-09-2012 18:40:01 --- INFO: ----------Source_Megaavto (cli)
27-09-2012 18:42:38 --- INFO: Lexus GX 470 - found: 147, pass primary filters: 99, did not pass the filter by colors: 46, did not pass the filter by options: 20, added: 33, new vincodes: 1
27-09-2012 18:42:38 --- INFO: finish: 27-09-2012 18:42:38
27-09-2012 18:42:38 --- INFO: elapsed time: ~156.21 sec., memory usage: ~2.83 Mb.
27-09-2012 19:49:10 --- INFO: start: 27-09-2012 19:49:10
27-09-2012 19:49:10 --- INFO: ----------Source_Megaavto (apache2handler)
27-09-2012 19:51:55 --- INFO: Lexus GX 470 - found: 147, pass primary filters: 98, did not pass the filter by colors: 45, did not pass the filter by options: 20, added: 33, new vincodes: 0
27-09-2012 19:51:55 --- INFO: finish: 27-09-2012 19:51:55
27-09-2012 19:51:55 --- INFO: elapsed time: ~165.71 sec., memory usage: ~2.79 Mb.